# generated using pymatgen
data_NaCl
_symmetry_space_group_name_H-M   'P 1'
_cell_length_a   2.67840324
_cell_length_b   7.18149989
_cell_length_c   20.10513565
_cell_angle_alpha   90.00000000
_cell_angle_beta   90.00000000
_cell_angle_gamma   90.00000000
_symmetry_Int_Tables_number   1
_chemical_formula_structural   NaCl
_chemical_formula_sum   'Na4 Cl4'
_cell_volume   386.72133071
_cell_formula_units_Z   4
loop_
 _symmetry_equiv_pos_site_id
 _symmetry_equiv_pos_as_xyz
  1  'x, y, z'
loop_
 _atom_site_type_symbol
 _atom_site_label
 _atom_site_symmetry_multiplicity
 _atom_site_fract_x
 _atom_site_fract_y
 _atom_site_fract_z
 _atom_site_occupancy
  Na  Na0  1  0.00000000  0.30612597  0.00111974  1.0
  Na  Na1  1  0.50000000  0.36126753  0.63053919  1.0
  Na  Na2  1  0.00000000  0.46281726  0.54483608  1.0
  Na  Na3  1  0.50000000  0.94679092  0.16780739  1.0
  Cl  Cl4  1  0.00000000  0.08569743  0.49358468  1.0
  Cl  Cl5  1  0.50000000  0.50785654  0.76308620  1.0
  Cl  Cl6  1  0.00000000  0.61787242  0.60291800  1.0
  Cl  Cl7  1  0.50000000  0.47444522  0.26614192  1.0
