# generated using pymatgen
data_NaCl
_symmetry_space_group_name_H-M   'P 1'
_cell_length_a   4.67994986
_cell_length_b   4.67994986
_cell_length_c   4.67994986
_cell_angle_alpha   90.00000000
_cell_angle_beta   90.00000000
_cell_angle_gamma   90.00000000
_symmetry_Int_Tables_number   1
_chemical_formula_structural   NaCl
_chemical_formula_sum   'Na4 Cl4'
_cell_volume   102.49993748
_cell_formula_units_Z   4
loop_
 _symmetry_equiv_pos_site_id
 _symmetry_equiv_pos_as_xyz
  1  'x, y, z'
loop_
 _atom_site_type_symbol
 _atom_site_label
 _atom_site_symmetry_multiplicity
 _atom_site_fract_x
 _atom_site_fract_y
 _atom_site_fract_z
 _atom_site_occupancy
  Na  Na0  1  0.88383111  0.88383111  0.88383111  1.0
  Na  Na1  1  0.97564613  0.47564613  0.02435387  1.0
  Na  Na2  1  0.60966754  0.89033246  0.10966754  1.0
  Na  Na3  1  0.72019489  0.27980511  0.77980511  1.0
  Cl  Cl4  1  0.04750458  0.04750458  0.04750458  1.0
  Cl  Cl5  1  0.50078758  0.00078758  0.49921242  1.0
  Cl  Cl6  1  0.19262926  0.30737074  0.69262926  1.0
  Cl  Cl7  1  0.01326165  0.98673835  0.48673835  1.0
