# generated using pymatgen
data_NaCl
_symmetry_space_group_name_H-M   'P 1'
_cell_length_a   2.00951413
_cell_length_b   14.86646883
_cell_length_c   12.65792624
_cell_angle_alpha   90.00000000
_cell_angle_beta   90.00000000
_cell_angle_gamma   90.00000000
_symmetry_Int_Tables_number   1
_chemical_formula_structural   NaCl
_chemical_formula_sum   'Na4 Cl4'
_cell_volume   378.14768809
_cell_formula_units_Z   4
loop_
 _symmetry_equiv_pos_site_id
 _symmetry_equiv_pos_as_xyz
  1  'x, y, z'
loop_
 _atom_site_type_symbol
 _atom_site_label
 _atom_site_symmetry_multiplicity
 _atom_site_fract_x
 _atom_site_fract_y
 _atom_site_fract_z
 _atom_site_occupancy
  Na  Na0  1  0.87180994  0.35400634  0.23718416  1.0
  Na  Na1  1  0.39610107  0.52554551  0.71147362  1.0
  Na  Na2  1  0.88273677  0.77235593  0.58656566  1.0
  Na  Na3  1  0.62721641  0.29820423  0.15353713  1.0
  Cl  Cl4  1  0.22391839  0.04056974  0.41462879  1.0
  Cl  Cl5  1  0.63711125  0.65411966  0.61485443  1.0
  Cl  Cl6  1  0.23671794  0.84655323  0.96071136  1.0
  Cl  Cl7  1  0.34203712  0.29457078  0.48264031  1.0
