# generated using pymatgen
data_NaCl
_symmetry_space_group_name_H-M   'P 1'
_cell_length_a   7.32094528
_cell_length_b   7.32094528
_cell_length_c   7.32094528
_cell_angle_alpha   90.00000000
_cell_angle_beta   90.00000000
_cell_angle_gamma   90.00000000
_symmetry_Int_Tables_number   1
_chemical_formula_structural   NaCl
_chemical_formula_sum   'Na4 Cl4'
_cell_volume   392.37513874
_cell_formula_units_Z   4
loop_
 _symmetry_equiv_pos_site_id
 _symmetry_equiv_pos_as_xyz
  1  'x, y, z'
loop_
 _atom_site_type_symbol
 _atom_site_label
 _atom_site_symmetry_multiplicity
 _atom_site_fract_x
 _atom_site_fract_y
 _atom_site_fract_z
 _atom_site_occupancy
  Na  Na0  1  0.92091384  0.92091384  0.92091384  1.0
  Na  Na1  1  0.18503494  0.68503494  0.81496506  1.0
  Na  Na2  1  0.61242975  0.88757025  0.11242975  1.0
  Na  Na3  1  0.58752395  0.41247605  0.91247605  1.0
  Cl  Cl4  1  0.14754093  0.14754093  0.14754093  1.0
  Cl  Cl5  1  0.52213884  0.02213884  0.47786116  1.0
  Cl  Cl6  1  0.37654476  0.12345524  0.87654476  1.0
  Cl  Cl7  1  0.91708382  0.08291618  0.58291618  1.0
