# generated using pymatgen
data_NaCl
_symmetry_space_group_name_H-M   'P 1'
_cell_length_a   7.19920822
_cell_length_b   7.19920822
_cell_length_c   7.19920822
_cell_angle_alpha   90.00000000
_cell_angle_beta   90.00000000
_cell_angle_gamma   90.00000000
_symmetry_Int_Tables_number   1
_chemical_formula_structural   NaCl
_chemical_formula_sum   'Na4 Cl4'
_cell_volume   373.12487592
_cell_formula_units_Z   4
loop_
 _symmetry_equiv_pos_site_id
 _symmetry_equiv_pos_as_xyz
  1  'x, y, z'
loop_
 _atom_site_type_symbol
 _atom_site_label
 _atom_site_symmetry_multiplicity
 _atom_site_fract_x
 _atom_site_fract_y
 _atom_site_fract_z
 _atom_site_occupancy
  Na  Na0  1  0.97059862  0.97059862  0.97059862  1.0
  Na  Na1  1  0.22088303  0.72088303  0.77911697  1.0
  Na  Na2  1  0.54633710  0.95366290  0.04633710  1.0
  Na  Na3  1  0.17241774  0.82758226  0.32758226  1.0
  Cl  Cl4  1  0.13165382  0.13165382  0.13165382  1.0
  Cl  Cl5  1  0.56704935  0.06704935  0.43295065  1.0
  Cl  Cl6  1  0.34386638  0.15613362  0.84386638  1.0
  Cl  Cl7  1  0.88327616  0.11672384  0.61672384  1.0
