# generated using pymatgen
data_NaCl
_symmetry_space_group_name_H-M   'P 1'
_cell_length_a   6.32618760
_cell_length_b   6.32618760
_cell_length_c   6.32618760
_cell_angle_alpha   90.00000000
_cell_angle_beta   90.00000000
_cell_angle_gamma   90.00000000
_symmetry_Int_Tables_number   1
_chemical_formula_structural   NaCl
_chemical_formula_sum   'Na4 Cl4'
_cell_volume   253.17813693
_cell_formula_units_Z   4
loop_
 _symmetry_equiv_pos_site_id
 _symmetry_equiv_pos_as_xyz
  1  'x, y, z'
loop_
 _atom_site_type_symbol
 _atom_site_label
 _atom_site_symmetry_multiplicity
 _atom_site_fract_x
 _atom_site_fract_y
 _atom_site_fract_z
 _atom_site_occupancy
  Na  Na0  1  0.87870554  0.87870554  0.87870554  1.0
  Na  Na1  1  0.36527144  0.86527144  0.63472856  1.0
  Na  Na2  1  0.38899608  0.11100392  0.88899608  1.0
  Na  Na3  1  0.08442630  0.91557370  0.41557370  1.0
  Cl  Cl4  1  0.25643663  0.25643663  0.25643663  1.0
  Cl  Cl5  1  0.51753508  0.01753508  0.48246492  1.0
  Cl  Cl6  1  0.03672947  0.46327053  0.53672947  1.0
  Cl  Cl7  1  0.85039328  0.14960672  0.64960672  1.0
