# generated using pymatgen
data_NaCl
_symmetry_space_group_name_H-M   'P 1'
_cell_length_a   6.27577120
_cell_length_b   6.27577120
_cell_length_c   6.27577120
_cell_angle_alpha   90.00000000
_cell_angle_beta   90.00000000
_cell_angle_gamma   90.00000000
_symmetry_Int_Tables_number   1
_chemical_formula_structural   NaCl
_chemical_formula_sum   'Na4 Cl4'
_cell_volume   247.17315752
_cell_formula_units_Z   4
loop_
 _symmetry_equiv_pos_site_id
 _symmetry_equiv_pos_as_xyz
  1  'x, y, z'
loop_
 _atom_site_type_symbol
 _atom_site_label
 _atom_site_symmetry_multiplicity
 _atom_site_fract_x
 _atom_site_fract_y
 _atom_site_fract_z
 _atom_site_occupancy
  Na  Na0  1  0.04067495  0.04067495  0.04067495  1.0
  Na  Na1  1  0.07796541  0.57796541  0.92203459  1.0
  Na  Na2  1  0.40025307  0.09974693  0.90025307  1.0
  Na  Na3  1  0.93855733  0.06144267  0.56144267  1.0
  Cl  Cl4  1  0.51360727  0.51360727  0.51360727  1.0
  Cl  Cl5  1  0.66070483  0.16070483  0.33929517  1.0
  Cl  Cl6  1  0.07183640  0.42816360  0.57183640  1.0
  Cl  Cl7  1  0.24080339  0.75919661  0.25919661  1.0
