# generated using pymatgen
data_NaCl
_symmetry_space_group_name_H-M   'P 1'
_cell_length_a   4.35898666
_cell_length_b   4.35898666
_cell_length_c   4.35898666
_cell_angle_alpha   90.00000000
_cell_angle_beta   90.00000000
_cell_angle_gamma   90.00000000
_symmetry_Int_Tables_number   1
_chemical_formula_structural   NaCl
_chemical_formula_sum   'Na4 Cl4'
_cell_volume   82.82407987
_cell_formula_units_Z   4
loop_
 _symmetry_equiv_pos_site_id
 _symmetry_equiv_pos_as_xyz
  1  'x, y, z'
loop_
 _atom_site_type_symbol
 _atom_site_label
 _atom_site_symmetry_multiplicity
 _atom_site_fract_x
 _atom_site_fract_y
 _atom_site_fract_z
 _atom_site_occupancy
  Na  Na0  1  0.65569041  0.65569041  0.65569041  1.0
  Na  Na1  1  0.41091678  0.91091678  0.58908322  1.0
  Na  Na2  1  0.78968594  0.71031406  0.28968594  1.0
  Na  Na3  1  0.58247964  0.41752036  0.91752036  1.0
  Cl  Cl4  1  0.04910724  0.04910724  0.04910724  1.0
  Cl  Cl5  1  0.84269278  0.34269278  0.15730722  1.0
  Cl  Cl6  1  0.38263932  0.11736068  0.88263932  1.0
  Cl  Cl7  1  0.00074711  0.99925289  0.49925289  1.0
