# generated using pymatgen
data_NaCl
_symmetry_space_group_name_H-M   'P 1'
_cell_length_a   4.94459602
_cell_length_b   4.94459602
_cell_length_c   4.94459602
_cell_angle_alpha   90.00000000
_cell_angle_beta   90.00000000
_cell_angle_gamma   90.00000000
_symmetry_Int_Tables_number   1
_chemical_formula_structural   NaCl
_chemical_formula_sum   'Na4 Cl4'
_cell_volume   120.89057545
_cell_formula_units_Z   4
loop_
 _symmetry_equiv_pos_site_id
 _symmetry_equiv_pos_as_xyz
  1  'x, y, z'
loop_
 _atom_site_type_symbol
 _atom_site_label
 _atom_site_symmetry_multiplicity
 _atom_site_fract_x
 _atom_site_fract_y
 _atom_site_fract_z
 _atom_site_occupancy
  Na  Na0  1  0.59316202  0.59316202  0.59316202  1.0
  Na  Na1  1  0.12572987  0.62572987  0.87427013  1.0
  Na  Na2  1  0.81573034  0.68426966  0.31573034  1.0
  Na  Na3  1  0.70479568  0.29520432  0.79520432  1.0
  Cl  Cl4  1  0.20095002  0.20095002  0.20095002  1.0
  Cl  Cl5  1  0.55995217  0.05995217  0.44004783  1.0
  Cl  Cl6  1  0.38116874  0.11883126  0.88116874  1.0
  Cl  Cl7  1  0.03315998  0.96684002  0.46684002  1.0
